71
charge -1, multiplicity 1, undefined, autogenerated by Rowan at 2025-09-30 15:11:25
Mn   -1.47561681  -3.65657688   3.79363378
O    -0.09406279   0.76529718   0.72206953
O    -3.31298280  -8.58179268   1.81206338
O    -1.83268294  -0.96496098   4.96444783
O    -3.23506947  -3.24319970   1.44727839
O    -3.56164434  -4.36126835   5.76377100
N     0.41504498  -3.33561668   3.26745021
N    -0.83555143  -5.53808798   3.64030655
C     1.04174596  -2.20269409   2.79199036
C     2.40054046  -2.09048363   2.71190241
C     3.25680429  -3.16876117   3.07649695
C     2.64218168  -4.33683667   3.40053513
C     1.23045547  -4.44323678   3.43718206
C     0.54119650  -5.65174947   3.64679335
C     1.18275373  -6.90599881   3.83617893
C     0.46679447  -8.05870612   3.87347949
C    -0.93814732  -7.93881767   3.65389912
C    -1.53493021  -6.72370095   3.52544139
C     4.78059190  -3.05675492   3.06473680
C     1.07431565  -9.44060715   4.06823825
C     0.15654302  -1.08318083   2.31095256
C     0.83281270  -0.08555369   1.37804684
C    -2.99754170  -6.61404948   3.17284448
C    -3.74537378  -7.91528169   2.98592257
C    -1.67606115  -2.00233658   4.47473438
C    -2.52858565  -3.39877031   2.35073356
C    -2.76513699  -4.11306603   4.96214113
C     5.32411597  -3.33516135   4.47293406
H     4.92551613  -2.61335770   5.18821420
H     5.04144891  -4.33186021   4.81386144
H     6.41580281  -3.26663504   4.48260446
C     5.37202234  -4.08254597   2.08784981
H     5.00224511  -3.90757394   1.07572409
H     6.46360004  -4.01265699   2.07558686
H     5.10058562  -5.10032409   2.37005548
C     5.25454468  -1.66585098   2.63765897
H     4.93088096  -1.42562388   1.62308142
H     4.87861099  -0.89161017   3.30903805
H     6.34625845  -1.62937574   2.65881908
C     2.58511437  -9.38292766   4.28822480
H     3.09709423  -8.94990983   3.42659802
H     2.83601443  -8.79050297   5.17026127
H     2.97374031 -10.39321848   4.43710752
C     0.80192348 -10.30110405   2.82532251
H     1.21695194 -11.30413355   2.95996829
H    -0.26700077 -10.39808261   2.63171138
H     1.26000197  -9.85214381   1.94190842
C     0.43520850 -10.11102887   5.29315216
H     0.62812874  -9.52528933   6.19409158
H    -0.64583865 -10.19864504   5.17751098
H     0.84612296 -11.11453909   5.43644293
H    -3.61322891  -8.57479108   3.85647264
H    -4.82008956  -7.70225995   2.90186527
H    -3.08440789  -6.01890736   2.25976991
H    -3.52634143  -6.05248895   3.94221012
H     2.25749363  -6.92231702   3.93955675
H    -1.53550109  -8.83013959   3.53489851
H     1.36408522  -0.60799365   0.58167910
H     1.55885098   0.53518357   1.92330126
H    -0.69260219  -1.52647495   1.78584395
H    -0.25657832  -0.55002339   3.16739880
H     2.82443123  -1.16724120   2.34971882
H     3.23155548  -5.21277353   3.63787100
C    -0.80999162   1.59653087   1.60567782
H    -0.13046865   2.13331921   2.28129138
H    -1.35027693   2.32130984   0.99817403
H    -1.52881145   1.03746804   2.21123411
C    -3.95236042  -9.81741949   1.64778551
H    -3.58293935 -10.26354244   0.72560583
H    -3.73511221 -10.49684706   2.48390131
H    -5.04241666  -9.70196011   1.57657338
