72
charge 0, multiplicity 1, undefined, autogenerated by Rowan at 2025-09-30 15:59:30
Mn   -1.60240950  -3.54250846   3.78827611
O    -0.02883577   0.46766729   0.13213581
O    -3.42143895  -8.43899774   2.10550019
O    -0.48526482  -3.17494610   6.55803220
O    -2.73568537  -0.87962143   3.27917461
O    -4.38121123  -3.87625450   4.70149007
N     0.37662613  -3.31117049   3.03631872
N    -0.91390602  -5.53606223   3.68709910
C     0.99288937  -2.21601544   2.56795437
C     2.37876407  -2.08487890   2.61406638
C     3.17545182  -3.08471827   3.14682300
C     2.52301300  -4.24833278   3.53371760
C     1.14724884  -4.34085706   3.42843239
C     0.42445510  -5.61446174   3.65314104
C     1.11649013  -6.81784272   3.68707972
C     0.42465999  -8.01326627   3.74640483
C    -0.96006978  -7.91972239   3.73537095
C    -1.60398876  -6.69493263   3.69574225
C     4.68582756  -2.96431804   3.30087165
C     1.10240092  -9.37640828   3.77086948
C     0.14963118  -1.13135811   1.96245385
C     0.87049639  -0.26991086   0.92663174
C    -3.10519289  -6.62560163   3.63465502
C    -3.81783764  -7.93198189   3.36087946
C    -0.91254573  -3.31395174   5.50714196
C    -2.22440059  -1.88262405   3.50389850
C    -3.28837584  -3.80870153   4.35835134
C     5.03323073  -3.06896241   4.79286652
H     4.55731752  -2.26779961   5.36080342
H     4.70759797  -4.02026508   5.21555035
H     6.11350797  -2.99160686   4.92934481
C     5.36804377  -4.10576274   2.53374406
H     5.11730675  -4.06682709   1.47223075
H     6.45186076  -4.02237449   2.63281563
H     5.07406533  -5.08392022   2.91624080
C     5.21349162  -1.63398373   2.76486667
H     5.00741007  -1.51797518   1.69913831
H     4.78181569  -0.78439088   3.29685478
H     6.29517506  -1.59408500   2.89960441
C     2.62632081  -9.26049739   3.77194248
H     2.99430327  -8.76502902   2.87126252
H     2.98859711  -8.71300323   4.64454919
H     3.06500400 -10.25875340   3.80148892
C     0.67008751 -10.16868913   2.52859501
H     1.14468127 -11.15185236   2.53265031
H    -0.41026184 -10.31429410   2.49902137
H     0.96362808  -9.64940061   1.61464368
C     0.66538335 -10.12617923   5.03686996
H     0.95879325  -9.57869312   5.93437935
H    -0.41534846 -10.26871971   5.06642407
H     1.13568288 -11.11083786   5.06662671
H    -3.61725996  -8.67349695   4.14909771
H    -4.89946890  -7.74857189   3.36758418
H    -3.37339002  -5.89651214   2.86780820
H    -3.48429874  -6.23957654   4.58237487
H     2.19188514  -6.81207822   3.62596151
H    -1.55841430  -8.81706565   3.71963457
H     1.43080453  -0.90121314   0.23446612
H     1.57859956   0.41804199   1.41085587
H    -0.70853125  -1.60180747   1.48099072
H    -0.23952633  -0.49571011   2.75987315
H     2.82162618  -1.17484731   2.24125647
H     3.08657264  -5.08046749   3.92695881
C    -0.75184482   1.44204832   0.85691508
H    -0.07412245   2.08490273   1.43267895
H    -1.28337669   2.05060713   0.12891844
H    -1.47988147   0.99249253   1.53803213
C    -4.08940077  -9.63661457   1.78490076
H    -3.73823881  -9.95748282   0.80684324
H    -3.87313397 -10.42250213   2.52004247
H    -5.17473041  -9.48885715   1.74599164
H    -2.17830883  -3.75810638   2.31006342
