75

Mn   -2.04546111   1.45993458   0.70617910
O    -0.57630303   5.34504814  -2.86510139
O    -3.67373346  -3.39184382  -1.12724097
O    -1.23808074   1.38426160   3.55457363
O    -2.84273283   4.29305012   1.03226042
O    -4.88924722   1.13667297   1.52941475
N    -0.04108540   1.71179599   0.12913516
N    -1.35160327  -0.55274991   0.58053623
C     0.56166554   2.81227973  -0.34036591
C     1.95013738   2.92495826  -0.35207474
C     2.75411405   1.89253097   0.09797155
C     2.10395616   0.72143016   0.47095526
C     0.72384665   0.65228738   0.44311562
C    -0.01107907  -0.62421612   0.64396747
C     0.67288836  -1.82280020   0.77261849
C    -0.02455479  -3.01812498   0.82678680
C    -1.40382022  -2.92888208   0.73631378
C    -2.04578640  -1.70663803   0.61098626
C     4.27320070   1.97897487   0.16498164
C     0.65101645  -4.37878464   0.92843420
C    -0.28880967   3.91179496  -0.91151000
C     0.36289696   4.63394437  -2.09367060
C    -3.54212430  -1.64435592   0.49319647
C    -4.21900172  -2.93865023   0.09210510
C    -1.57398903   1.41948689   2.46402852
C    -2.49124292   3.21918133   0.87104555
C    -3.81705283   1.19424040   1.15501466
C     4.70980806   1.78866260   1.62456197
H     4.29057807   2.56949057   2.26140281
H     4.38891957   0.82341102   2.01843282
H     5.79797334   1.83613823   1.69592038
C     4.88346805   0.86993741  -0.70367544
H     4.56706009   0.97004663  -1.74335490
H     5.97257554   0.93235792  -0.67017145
H     4.59710182  -0.12346792  -0.35645721
C     4.79385563   3.32728161  -0.33171918
H     4.53070015   3.50199337  -1.37659432
H     4.40883380   4.15468207   0.26698740
H     5.88191449   3.34314412  -0.25730995
C     2.17104595  -4.26080262   1.03357415
H     2.60151806  -3.78559524   0.14978689
H     2.47195824  -3.69410320   1.91726430
H     2.60646713  -5.25749950   1.11544844
C     0.30521295  -5.18954999  -0.32932089
H     0.77242395  -6.17469501  -0.27532506
H    -0.77108358  -5.32889880  -0.43500560
H     0.66732257  -4.68624495  -1.22751501
C     0.12728288  -5.10885839   2.17258307
H     0.35625014  -4.54687648   3.07986077
H    -0.95215130  -5.25586829   2.12925602
H     0.59650608  -6.09125451   2.25080073
H    -4.11694921  -3.71824048   0.86340387
H    -5.29168433  -2.74195112  -0.02328319
H    -3.80746645  -0.87505460  -0.23454194
H    -3.96045312  -1.33520974   1.45524893
H     1.74909204  -1.82308397   0.79980843
H    -2.00349004  -3.82557831   0.72918205
H     0.81273870   3.90510542  -2.76986692
H     1.15243308   5.32059447  -1.75572064
H    -1.21349291   3.45953347  -1.27071466
H    -0.53591126   4.63057909  -0.12720073
H     2.38672807   3.84159221  -0.71677732
H     2.68103283  -0.13712957   0.77590885
C    -1.15726605   6.43527238  -2.18225773
H    -0.38569298   7.09600394  -1.76715173
H    -1.74542298   6.99071552  -2.90907138
H    -1.81762897   6.10998134  -1.37267993
C    -4.37213520  -4.50089329  -1.64175518
H    -3.89346675  -4.78560585  -2.57607716
H    -4.33969664  -5.35085145  -0.94782119
H    -5.42101908  -4.25222844  -1.83768142
H    -3.21544500   1.25866163  -3.04163753
O    -2.29037565   1.45709989  -1.28944822
C    -3.33339265   1.12185984  -1.95037583
O    -4.39006734   0.68369159  -1.50817083

