75
charge 0, multiplicity 1, undefined, autogenerated by Rowan at 2025-09-30 16:00:12
Mn   -1.55690820  -3.53410550   3.97576092
O    -0.31436341   0.27951010   0.12437127
O    -3.17038918  -8.15541537   1.82943852
O    -0.40354043  -3.44440455   6.70530815
O    -2.40761505  -0.69185306   4.11760517
O    -4.27105000  -3.89875080   5.12687969
N     0.38170501  -3.30013155   3.17463140
N    -0.88526149  -5.51945031   3.77516218
C     0.95143532  -2.20846992   2.65167025
C     2.33847716  -2.07143878   2.61390620
C     3.16921174  -3.06541639   3.10059007
C     2.55025623  -4.23332785   3.53904063
C     1.17428235  -4.32906267   3.53097171
C     0.45477053  -5.60420273   3.78294146
C     1.12698176  -6.81246650   3.85669903
C     0.41130102  -7.99996579   3.89411702
C    -0.96931741  -7.89300847   3.81791947
C    -1.59592198  -6.65890492   3.74656695
C     4.68672820  -2.94446631   3.13917917
C     1.07170865  -9.37153059   3.94296943
C     0.06263973  -1.14497296   2.06941467
C     0.63726288  -0.49998467   0.80466984
C    -3.08912254  -6.55253946   3.58986964
C    -3.76659652  -7.79715965   3.05270041
C    -0.86000212  -3.47408723   5.65894617
C    -2.03424836  -1.76530832   4.05081227
C    -3.22929161  -3.80980330   4.67498684
C     5.15410729  -3.08709354   4.59467237
H     4.73181816  -2.29755843   5.21864709
H     4.86147102  -4.04733887   5.02127910
H     6.24214219  -3.01639432   4.64271189
C     5.30172306  -4.06475549   2.28805179
H     4.96207802  -3.99944182   1.25301157
H     6.38975953  -3.98043803   2.29737633
H     5.04157197  -5.05327647   2.66869132
C     5.16920079  -1.59897042   2.59833682
H     4.89198553  -1.46061341   1.55165884
H     4.76959846  -0.76446750   3.17752090
H     6.25717186  -1.55468390   2.66089090
C     2.59438397  -9.27484071   4.03343973
H     3.02108779  -8.78158932   3.15784863
H     2.91223842  -8.73665172   4.92895217
H     3.01757421 -10.27889921   4.08239969
C     0.70225599 -10.13869862   2.66458856
H     1.16536534 -11.12706015   2.67941770
H    -0.37605980 -10.27068432   2.57050511
H     1.05302255  -9.60840219   1.77761186
C     0.55441257 -10.13376467   5.17052380
H     0.80358133  -9.60483287   6.09223374
H    -0.52748588 -10.26508266   5.13789019
H     1.01122404 -11.12418557   5.21014671
H    -3.70768788  -8.63410363   3.76586011
H    -4.83178392  -7.57798181   2.90893807
H    -3.29459585  -5.71512713   2.91975615
H    -3.54034214  -6.31789871   4.55691789
H     2.20421624  -6.82539326   3.84143660
H    -1.57844123  -8.78269904   3.77330769
H     0.94693205  -1.27683196   0.10365889
H     1.51388908   0.12001703   1.04113362
H    -0.89602658  -1.59631851   1.80961663
H    -0.12031984  -0.37557841   2.82346215
H     2.75293113  -1.16380473   2.20469711
H     3.14499240  -5.06674046   3.88044211
C    -0.71008843   1.43684696   0.82720867
H     0.16205729   2.01929991   1.15153778
H    -1.30259475   2.03836474   0.14173618
H    -1.32371607   1.19976772   1.70192798
C    -3.86167218  -9.19883021   1.18230666
H    -3.34188824  -9.40597083   0.25003438
H    -3.87835897 -10.10812252   1.79688624
H    -4.89436669  -8.90901899   0.95944043
H    -0.81015605  -4.66890149   1.27779225
O    -2.32883765  -3.62392962   2.12503451
C    -1.79210913  -4.17657658   1.08972600
O    -2.25556705  -4.20280598  -0.03334957
