97
charge 0, multiplicity 1, undefined, autogenerated by Rowan at 2025-09-30 15:59:15
Mn   -1.68167162  -3.53183605   3.45034212
O    -0.25623920   0.39166782   0.51872245
O    -3.44323748  -8.41145505   2.15800044
O    -1.12277277  -2.05346841   5.97605059
O    -2.78053893  -1.73764086   1.39442007
O    -4.49412497  -3.78183065   4.31792482
N     0.42144548  -3.25301571   3.08380443
N    -0.90585994  -5.52004953   3.68480503
C     1.07394668  -2.10345083   2.84409070
C     2.46414308  -2.02368996   2.85966905
C     3.24088778  -3.12617261   3.15722813
C     2.54927606  -4.29758906   3.43633557
C     1.16720122  -4.33686546   3.38091380
C     0.43213885  -5.60131441   3.62548510
C     1.12117429  -6.80633367   3.70892534
C     0.43574653  -7.99657961   3.83595638
C    -0.95029022  -7.90422743   3.84447965
C    -1.59197772  -6.68164636   3.75586921
C     4.76244083  -3.10530085   3.19299932
C     1.11879744  -9.35673453   3.87704256
C     0.31874315  -0.83535322   2.56860413
C     0.80920298  -0.09262166   1.31080523
C    -3.09504028  -6.61682327   3.69118481
C    -3.80851887  -7.92736321   3.44097078
C    -1.32635980  -2.68059791   5.04033041
C    -2.32210273  -2.44546306   2.20879848
C    -3.40198913  -3.73097404   3.96910787
C     5.23554194  -3.49272528   4.60100028
H     4.86230075  -2.78698823   5.34508585
H     4.89695906  -4.49063440   4.88216199
H     6.32631998  -3.48628643   4.63990912
C     5.29475905  -4.12181799   2.17214209
H     4.96268291  -3.87063101   1.16317262
H     6.38630855  -4.12081962   2.18351953
H     4.95739521  -5.13478548   2.39518982
C     5.32398764  -1.72625145   2.84857393
H     5.03220347  -1.41062983   1.84511544
H     4.99615566  -0.96707014   3.56108541
H     6.41371615  -1.76109447   2.88076777
C     2.64221664  -9.23169696   3.88010484
H     3.00217796  -8.74651555   2.97094963
H     2.99856291  -8.67077443   4.74703318
H     3.08650100 -10.22725314   3.92518419
C     0.69847256 -10.14915152   2.62975691
H     1.16705687 -11.13540010   2.64360705
H    -0.38295486 -10.28994443   2.58745881
H     1.01382700  -9.62754590   1.72465360
C     0.67885098 -10.10601494   5.14164122
H     0.96146631  -9.55539704   6.04080581
H    -0.40046201 -10.26148447   5.16593477
H     1.15789734 -11.08621119   5.17664422
H    -3.57437280  -8.68152761   4.20371469
H    -4.89049025  -7.75609337   3.47659851
H    -3.36278913  -5.92538436   2.89070288
H    -3.48431641  -6.18447250   4.61512338
H     2.19191451  -6.81737279   3.60813062
H    -1.54501187  -8.80402904   3.87626933
H     1.36523857  -0.76862088   0.65985118
H     1.47190362   0.74058934   1.57661551
H    -0.73245288  -1.05542139   2.44931643
H     0.39941059  -0.19632556   3.45260992
H     2.91701008  -1.06563799   2.64637403
H     3.10029288  -5.18456251   3.70264893
C    -1.03908249   1.38277813   1.15666141
H    -0.40821809   2.21517818   1.48811856
H    -1.75597519   1.74349470   0.42370122
H    -1.58648867   0.97797356   2.01161839
C    -4.03198959  -9.66498385   1.86554138
H    -3.72923293  -9.93956079   0.85764119
H    -3.68861912 -10.43067789   2.56969495
H    -5.12425241  -9.60723880   1.90961532
H    -1.98221506  -3.78730339   1.86958074
N    -1.10715277  -5.14470623  -0.20146735
C    -1.27038616  -3.93192506  -0.99689605
H    -2.25753184  -3.51193436  -0.80174780
H    -1.21260628  -4.15169492  -2.07803794
C    -2.17514224  -6.09866245  -0.46652023
H    -2.01208599  -6.98059467   0.15688918
H    -2.17289337  -6.43809091  -1.51823291
C     0.20967350  -5.73440672  -0.38386132
H     0.96014228  -5.03522620  -0.01107360
H     0.42787063  -5.91245781  -1.45551623
C    -0.26342041  -2.84055783  -0.66616358
H     0.75607210  -3.15623363  -0.91221990
H    -0.30340428  -2.64477623   0.41003801
C     0.40099374  -7.02654017   0.39856981
H    -0.04953505  -7.88263312  -0.11196857
H    -0.07816761  -6.93038149   1.37200351
C    -3.56168395  -5.57624031  -0.10059776
H    -3.97511945  -4.93570922  -0.87844240
H    -3.48293354  -4.97741884   0.81554571
O    -0.56982129  -1.68628303  -1.42571123
O     1.78094090  -7.28811216   0.65466115
O    -4.47592583  -6.64955951   0.05300838
H    -0.69494947  -0.94001898  -0.82273403
H     2.22977598  -7.39344895  -0.19041143
H    -4.13181429  -7.22458263   0.75286160
