97

Mn    -1.68167162  -3.53183605   3.45034212
O     -0.23592335   0.40384740   0.51290860
O     -3.37869380  -8.45910789   2.22693387
O     -1.11173947  -2.09849681   6.00491032
O     -2.85978558  -1.68304307   1.48122308
O     -4.49505508  -3.73094591   4.32373820
N      0.42144548  -3.25301571   3.08380443
N     -0.90585994  -5.52004953   3.68480503
C      1.06993639  -2.10070433   2.84574514
C      2.46023582  -2.01886614   2.86788908
C      3.23761948  -3.11862755   3.17151837
C      2.54796940  -4.29147558   3.45357468
C      1.16720122  -4.33686546   3.38091380
C      0.43213885  -5.60131441   3.62548510
C      1.11997404  -6.80733491   3.68894447
C      0.43048269  -7.99695563   3.81536373
C     -0.95376142  -7.90322815   3.84091675
C     -1.59266155  -6.67963981   3.76002789
C      4.75888320  -3.09554474   3.20437860
C      1.10971714  -9.35855644   3.86098197
C      0.31713312  -0.83297095   2.56543620
C      0.81254282  -0.10096946   1.30220309
C     -3.09367613  -6.61393917   3.69779377
C     -3.79632904  -7.93405802   3.46884087
C     -1.31419181  -2.71033224   5.05947672
C     -2.35040673  -2.40992999   2.24144255
C     -3.40330316  -3.71511505   3.97304941
C      5.23735298  -3.48564720   4.60918310
H      4.86527785  -2.78397240   5.35753471
H      4.90171079  -4.48558213   4.88695317
H      6.32819302  -3.47804767   4.64367846
C      5.28868526  -4.11130168   2.18160802
H      4.95170411  -3.86194853   1.17390877
H      6.38012966  -4.10808935   2.18894357
H      4.95495382  -5.12457297   2.40912814
C      5.32001551  -1.71730383   2.85574494
H      5.02548346  -1.40375207   1.85241289
H      4.99628647  -0.95518425   3.56690247
H      6.40978530  -1.75482875   2.88344909
C      2.63336214  -9.24186946   3.87972151
H      3.02005056  -8.77213053   2.97343337
H      2.97732006  -8.67008743   4.74382182
H      3.07368744 -10.23769146   3.94694166
C      0.68636987 -10.16335390   2.62341126
H      1.16178237 -11.14609813   2.63965889
H     -0.39391992 -10.31019212   2.59169719
H      0.98142518  -9.65438490   1.70430829
C      0.66758532 -10.09787365   5.13095390
H      0.95235759  -9.53776635   6.02340236
H     -0.41170408 -10.25034438   5.15536983
H      1.14598047 -11.07817723   5.17583614
H     -3.59204533  -8.65231309   4.27632472
H     -4.88050781  -7.76656793   3.45640267
H     -3.35778762  -5.94131241   2.88201299
H     -3.48567526  -6.16704923   4.61285229
H      2.19249740  -6.81521612   3.60016923
H     -1.54952398  -8.80157427   3.87650733
H      1.35020667  -0.79617934   0.65732334
H      1.50198350   0.71175918   1.57063508
H     -0.73285521  -1.05114582   2.44422445
H      0.40106027  -0.18872483   3.44564351
H      2.91177668  -1.06130413   2.65129251
H      3.09992912  -5.17189578   3.74017380
C     -1.00229956   1.39599531   1.15981603
H     -0.36997432   2.22445970   1.50206336
H     -1.71733479   1.76857764   0.43156931
H     -1.55744239   0.99466477   2.01228946
C     -4.02288639  -9.66941291   1.90611912
H     -3.70296907  -9.95428056   0.90529214
H     -3.75280933 -10.46807092   2.60936986
H     -5.11273374  -9.55338286   1.91510827
H     -2.00822899  -3.72429984   1.83820593
N     -0.55472332  -6.12206454  -4.10543276
C     -0.69800299  -4.92225836  -4.92626745
H     -1.70544032  -4.52642682  -4.80120436
H     -0.57593209  -5.15417867  -5.99952212
C     -1.62229963  -7.07136913  -4.39414022
H     -1.44621899  -7.97677851  -3.81097039
H     -1.63111831  -7.36971152  -5.45696370
C      0.76193643  -6.72102012  -4.29078253
H      1.51947916  -6.00439430  -3.97547050
H      0.94891022  -6.94844119  -5.35814597
C      0.25518570  -3.80356780  -4.53555326
H      1.29272220  -4.04932911  -4.77615836
H      0.18625554  -3.64466519  -3.45637690
C      1.00325913  -7.97594154  -3.45889925
H      0.50814866  -8.85073142  -3.89052519
H      0.61209710  -7.82888412  -2.45129029
C     -2.99972935  -6.55366703  -3.99541569
H     -3.39149934  -5.84276939  -4.72124539
H     -2.92009373  -6.04130223  -3.03159365
O     -0.11777304  -2.63663116  -5.26439804
O      2.39507867  -8.22978045  -3.31314349
O     -3.94963686  -7.61026803  -3.94930438
H     -0.13885579  -1.88798111  -4.66479865
H      2.75263499  -8.48801916  -4.16809726
H     -3.80152313  -8.11352095  -3.14328039
