75

Mn    -2.01696089   1.37830386   0.79405844
O     -0.53266138   5.32085867  -2.90866167
O     -3.61175946  -3.46253548  -1.10188523
O     -1.15639957   1.49265149   3.62172763
O     -2.84077014   4.23747141   0.93406676
O     -4.85765540   1.09422510   1.61829839
N     -0.05033706   1.64897014   0.10392561
N     -1.33406522  -0.59362922   0.66369342
C      0.54254208   2.74762927  -0.38973784
C      1.93134573   2.87031531  -0.39247182
C      2.74480753   1.86539132   0.09861765
C      2.10628026   0.69931366   0.50915808
C      0.72963469   0.61139691   0.46602539
C      0.00774997  -0.66505797   0.69751779
C      0.69129131  -1.86548118   0.79643762
C     -0.01022978  -3.05951351   0.84650890
C     -1.39053655  -2.96861092   0.76358968
C     -2.03260869  -1.74602934   0.65658769
C      4.26211215   1.97396442   0.16934816
C      0.66116017  -4.42352248   0.91540750
C     -0.30541260   3.84037845  -0.97583782
C      0.37577761   4.58520674  -2.13019865
C     -3.52168722  -1.67194400   0.47929124
C     -4.19854256  -2.96815765   0.08104550
C     -1.48581319   1.45009834   2.53071769
C     -2.49190749   3.16215163   0.82845398
C     -3.76878940   1.12592035   1.29288010
C      4.69865069   1.81414390   1.63250514
H      4.26420872   2.59712708   2.25642343
H      4.39631662   0.84926599   2.04158226
H      5.78543967   1.88318135   1.70410534
C      4.88570687   0.85694459  -0.67976210
H      4.57368016   0.93910744  -1.72231779
H      5.97397830   0.92857765  -0.64197881
H      4.60479788  -0.13315480  -0.31865973
C      4.76721436   3.31998795  -0.34917906
H      4.50842254   3.47288687  -1.39840030
H      4.36833715   4.15277616   0.23268926
H      5.85457470   3.35104441  -0.26920706
C      2.18232194  -4.31324386   1.00952501
H      2.60797191  -3.82918981   0.12824049
H      2.49297412  -3.75929276   1.89796555
H      2.61380040  -5.31276372   1.07514314
C      0.29984637  -5.20646688  -0.35587889
H      0.76467665  -6.19369793  -0.32726730
H     -0.77773191  -5.34017683  -0.45421762
H      0.65464981  -4.68523937  -1.24673777
C      0.14363792  -5.17445611   2.14957387
H      0.38457965  -4.63206793   3.06575186
H     -0.93711596  -5.31328479   2.11285633
H      0.60678449  -6.16107455   2.20388774
H     -4.14376290  -3.72752938   0.87701700
H     -5.26104253  -2.75462802  -0.08519030
H     -3.73219787  -0.92634941  -0.29471031
H     -3.98041739  -1.33450752   1.41178500
H      1.76817185  -1.86721278   0.79382371
H     -1.99045746  -3.86439535   0.73327844
H      0.84118219   3.87056762  -2.81174093
H      1.16056606   5.25835703  -1.75319049
H     -1.24248938   3.41766875  -1.35070982
H     -0.55797304   4.55424955  -0.18797539
H      2.36128258   3.77995395  -0.78045061
H      2.68754867  -0.14029319   0.85713262
C     -1.18742987   6.34824894  -2.19500428
H     -0.46391050   6.98198678  -1.66504730
H     -1.72001714   6.95338236  -2.92482098
H     -1.91078912   5.95013429  -1.47776962
C     -4.38301312  -4.48125836  -1.69566491
H     -3.85648643  -4.81174297  -2.58815226
H     -4.51173438  -5.33428556  -1.01744407
H     -5.37261399  -4.10884991  -1.98134840
H     -2.27437428   1.09882566  -0.90935290
O     -3.24516805   2.64775528  -1.80544700
C     -3.25548418   1.44939352  -1.54443187
O     -3.96286333   0.48723534  -1.81264382

