75
charge 0, multiplicity 1, undefined, autogenerated by Rowan at 2025-09-30 16:00:01
Mn   -1.58596675  -3.48263881   4.00766029
O    -0.21148881   0.38076360   0.15448210
O    -3.43616510  -8.21576077   2.07611938
O    -0.32427648  -3.32125302   6.73357827
O    -2.60410449  -0.73477354   3.74755265
O    -4.33098729  -3.81955004   5.02279807
N     0.34599841  -3.26493954   3.15916112
N    -0.93932964  -5.47951761   3.80356620
C     0.94330817  -2.17614315   2.65868484
C     2.33092041  -2.05023845   2.64665883
C     3.14436608  -3.05517945   3.14226102
C     2.50464777  -4.22256002   3.54365289
C     1.12567991  -4.30450941   3.50461827
C     0.39757066  -5.57339842   3.74063706
C     1.07203740  -6.78523094   3.73820188
C     0.36358777  -7.97263011   3.77889131
C    -1.01973763  -7.86111827   3.78979077
C    -1.64667890  -6.62628125   3.79217758
C     4.65943192  -2.93649101   3.24185820
C     1.02277456  -9.34488679   3.75528437
C     0.07909519  -1.09639699   2.07307246
C     0.72958820  -0.34205088   0.91302072
C    -3.14810326  -6.52968324   3.74167859
C    -3.86866810  -7.80260182   3.35340657
C    -0.80792107  -3.37491093   5.70017629
C    -2.14532336  -1.77905465   3.86798433
C    -3.25339266  -3.74620841   4.63779365
C     5.06415804  -3.10024072   4.71406358
H     4.59644526  -2.33347715   5.33388950
H     4.77172068  -4.07477839   5.10683459
H     6.14716799  -3.00842278   4.81420142
C     5.31386187  -4.04297639   2.40302886
H     5.03582592  -3.95216529   1.35170154
H     6.40047540  -3.97025559   2.47708803
H     5.02277787  -5.03672608   2.74556623
C     5.16344345  -1.58202273   2.74437600
H     4.92115443  -1.42099836   1.69227413
H     4.74612567  -0.75877082   3.32716840
H     6.24899234  -1.54184234   2.84367566
C     2.54805269  -9.24862756   3.74440201
H     2.91348007  -8.73053415   2.85559368
H     2.92504196  -8.73223593   4.62967958
H     2.97519271 -10.25230785   3.73928098
C     0.56655200 -10.09141550   2.49294584
H     1.02223958 -11.08307877   2.46185781
H    -0.51662935 -10.21626298   2.46783092
H     0.86267557  -9.54877836   1.59338396
C     0.58837051 -10.12543997   5.00345894
H     0.89240648  -9.60426915   5.91313218
H    -0.49316933 -10.26055983   5.03725486
H     1.05094431 -11.11411121   5.00397269
H    -3.70062010  -8.60415730   4.08878887
H    -4.94783387  -7.60593572   3.34135308
H    -3.40842973  -5.73950493   3.03500870
H    -3.52519171  -6.21792455   4.71755347
H     2.14610318  -6.79228106   3.65708673
H    -1.63017515  -8.75014592   3.75890236
H     1.19237098  -1.04743009   0.22085064
H     1.50981624   0.34275572   1.27463349
H    -0.83654709  -1.56119016   1.70631587
H    -0.20761563  -0.39357481   2.85767358
H     2.76070557  -1.14075509   2.25691050
H     3.08170858  -5.06401270   3.89589948
C    -0.81132298   1.44266919   0.86728948
H    -0.05036782   2.09205051   1.31803374
H    -1.38943681   2.02086149   0.15048574
H    -1.48274438   1.08481787   1.65324155
C    -4.09771801  -9.38149750   1.64393429
H    -3.73029258  -9.61785640   0.64808583
H    -3.89301989 -10.22697860   2.31354507
H    -5.18207372  -9.22997797   1.59911146
H    -2.22463517  -3.61578725   2.54359592
O    -0.41406599  -5.29104254   0.72605218
C    -1.56150542  -5.27859546   0.55286104
O    -2.69838867  -5.28992413   0.33873864
