75

Mn    -2.04546111   1.45993458   0.70617910
O     -0.51807992   5.40516737  -2.86704458
O     -3.62955352  -3.47931842  -1.11478016
O     -1.47098065   1.63868386   3.58223263
O     -2.91880250   4.29665554   0.79149631
O     -4.97039511   1.18090460   1.17836255
N     -0.04108540   1.71179599   0.12913516
N     -1.35160327  -0.55274991   0.58053623
C      0.56106702   2.80565444  -0.36824378
C      1.94745388   2.91853883  -0.36366244
C      2.74971701   1.89943120   0.11818786
C      2.10039009   0.73385708   0.51575849
C      0.72370106   0.65804973   0.47670928
C     -0.00924072  -0.61827305   0.67483650
C      0.67058067  -1.81576561   0.81208483
C     -0.02873944  -3.01218956   0.83806831
C     -1.40662442  -2.92586504   0.71418685
C     -2.04614950  -1.70675879   0.57707444
C      4.26912667   1.98863608   0.17451726
C      0.64365770  -4.37464018   0.93254340
C     -0.28096258   3.88673711  -0.98279158
C      0.40036344   4.64667445  -2.12825393
C     -3.53572254  -1.64485164   0.39043142
C     -4.20537636  -2.96338796   0.05809742
C     -1.72014525   1.57421791   2.47211570
C     -2.53573643   3.23107097   0.70618152
C     -3.85488776   1.20198941   0.97632901
C      4.71711881   1.79386159   1.63052842
H      4.30132489   2.57179785   2.27345123
H      4.40208152   0.82677031   2.02459669
H      5.80541416   1.84324480   1.69587893
C      4.86219646   0.87987054  -0.70763532
H      4.53301811   0.98959154  -1.74219734
H      5.95182176   0.93364789  -0.68780672
H      4.57102299  -0.11341572  -0.36304066
C      4.78313783   3.33963979  -0.32361341
H      4.51454758   3.51448608  -1.36688851
H      4.39939965   4.16608804   0.27807221
H      5.87158182   3.35903826  -0.25710482
C      2.16385237  -4.25701401   1.03766718
H      2.59169492  -3.77746740   0.15476020
H      2.46495101  -3.69425032   1.92419198
H      2.60117897  -5.25319300   1.11439375
C      0.29431627  -5.18021337  -0.32895705
H      0.76270813  -6.16503702  -0.27880104
H     -0.78195005  -5.32165271  -0.43402788
H      0.65395344  -4.67382870  -1.22645104
C      0.11377700  -5.10223166   2.17545373
H      0.34077908  -4.54187631   3.08408141
H     -0.96572473  -5.24664302   2.12801736
H      0.57856189  -6.08576470   2.25608912
H     -4.11546859  -3.68119398   0.88816871
H     -5.27500309  -2.77615198  -0.08775064
H     -3.74969841  -0.94418045  -0.41882226
H     -3.99156875  -1.25694605   1.30444425
H      1.74634027  -1.81565774   0.85824024
H     -1.99920620  -3.82529130   0.67718911
H      0.83637207   3.93631572  -2.83178728
H      1.19939806   5.29844412  -1.74327136
H     -1.18241744   3.43623901  -1.40315755
H     -0.57384927   4.59571070  -0.20562428
H      2.38852923   3.82080566  -0.75483698
H      2.67828958  -0.12073428   0.82903690
C     -1.10538142   6.46690922  -2.14956114
H     -0.34108311   7.11111045  -1.69515383
H     -1.68230346   7.04866637  -2.86409667
H     -1.78334837   6.11281621  -1.36605911
C     -4.38169024  -4.52924761  -1.68499884
H     -3.89749642  -4.79784053  -2.62047158
H     -4.41003034  -5.40541597  -1.02548197
H     -5.40670348  -4.20702162  -1.89300205
H     -3.41353200   1.49342699  -5.93905567
O     -2.32725400   1.42030421  -4.25227461
C     -3.42184380   1.22570094  -4.84511353
O     -4.47851849   0.78753269  -4.40290853

